  Page 1                                    Thu Jul 11 12:43:56 2024

  ******************************************************************
  *                           E P A N E T                          *
  *                   Hydraulic and Water Quality                  *
  *                   Analysis for Pipe Networks                   *
  *                         Version 2.2                            *
  ******************************************************************
  
  Analysis begun Thu Jul 11 12:43:56 2024

   
  Hydraulic Status:
  -----------------------------------------------------------------------
     0:00:00: Balanced after 1 trials
     0:00:00: Tank 1 is emptying at 1.00 m
   
     1:00:00: Balanced after 1 trials
   
     2:00:00: Balanced after 1 trials
   
     3:00:00: Balanced after 1 trials
   
     4:00:00: Balanced after 1 trials
   
     5:00:00: Balanced after 1 trials
   
     6:00:00: Balanced after 1 trials
   
     7:00:00: Balanced after 1 trials
   
     8:00:00: Balanced after 1 trials
   
     9:00:00: Balanced after 1 trials
   
    10:00:00: Balanced after 1 trials
   
    11:00:00: Balanced after 1 trials
   
    12:00:00: Balanced after 1 trials
   
    13:00:00: Balanced after 1 trials
   
    14:00:00: Balanced after 1 trials
   
    15:00:00: Balanced after 1 trials
   
    16:00:00: Balanced after 1 trials
   
    17:00:00: Balanced after 1 trials
   
    18:00:00: Balanced after 1 trials
   
    19:00:00: Balanced after 1 trials
   
    20:00:00: Balanced after 1 trials
   
    21:00:00: Balanced after 1 trials
   
    22:00:00: Balanced after 1 trials
   
    23:00:00: Balanced after 1 trials
   
    24:00:00: Balanced after 1 trials
   
   
  Hydraulic Status:
  -----------------------------------------------------------------------
     0:00:00: Balanced after 1 trials
     0:00:00: Tank 1 is emptying at 1.00 m
   
     1:00:00: Balanced after 1 trials
   
     2:00:00: Balanced after 1 trials
   
     3:00:00: Balanced after 1 trials
   
     4:00:00: Balanced after 1 trials
   
     5:00:00: Balanced after 1 trials
   
     6:00:00: Balanced after 1 trials
   
     7:00:00: Balanced after 1 trials
   
     8:00:00: Balanced after 1 trials
   
     9:00:00: Balanced after 1 trials
   
    10:00:00: Balanced after 1 trials
   
    11:00:00: Balanced after 1 trials
   
    12:00:00: Balanced after 1 trials
   
    13:00:00: Balanced after 1 trials
   
    14:00:00: Balanced after 1 trials
   
    15:00:00: Balanced after 1 trials
   
    16:00:00: Balanced after 1 trials
   
    17:00:00: Balanced after 1 trials
   
    18:00:00: Balanced after 1 trials
   
    19:00:00: Balanced after 1 trials
   
    20:00:00: Balanced after 1 trials
   
    21:00:00: Balanced after 1 trials
   
    22:00:00: Balanced after 1 trials
   
    23:00:00: Balanced after 1 trials
   
    24:00:00: Balanced after 1 trials
   
   
  Hydraulic Status:
  -----------------------------------------------------------------------
     0:00:00: Balanced after 1 trials
     0:00:00: Tank 1 is emptying at 1.00 m
   
     1:00:00: Balanced after 1 trials
   
     2:00:00: Balanced after 1 trials
   
     3:00:00: Balanced after 1 trials
   
     4:00:00: Balanced after 1 trials
   
     5:00:00: Balanced after 1 trials
   
     6:00:00: Balanced after 1 trials
   
     7:00:00: Balanced after 1 trials
   
     8:00:00: Balanced after 1 trials
   
     9:00:00: Balanced after 1 trials
   
    10:00:00: Balanced after 1 trials
   
    11:00:00: Balanced after 1 trials
   
    12:00:00: Balanced after 1 trials
   
    13:00:00: Balanced after 1 trials
   
    14:00:00: Balanced after 1 trials
   
    15:00:00: Balanced after 1 trials
   
    16:00:00: Balanced after 1 trials
   
    17:00:00: Balanced after 1 trials
   
    18:00:00: Balanced after 1 trials
   
    19:00:00: Balanced after 1 trials
   
    20:00:00: Balanced after 1 trials
   
    21:00:00: Balanced after 1 trials
   
    22:00:00: Balanced after 1 trials
   
    23:00:00: Balanced after 1 trials
   
    24:00:00: Balanced after 1 trials
   
   
  Hydraulic Status:
  -----------------------------------------------------------------------
     0:00:00: Balanced after 1 trials
     0:00:00: Tank 1 is emptying at 1.00 m
   
     1:00:00: Balanced after 1 trials
   
     2:00:00: Balanced after 1 trials
   
     3:00:00: Balanced after 1 trials
   
     4:00:00: Balanced after 1 trials
   
     5:00:00: Balanced after 1 trials
   
     6:00:00: Balanced after 1 trials
   
     7:00:00: Balanced after 1 trials
   
     8:00:00: Balanced after 1 trials
   
     9:00:00: Balanced after 1 trials
   
    10:00:00: Balanced after 1 trials
   
    11:00:00: Balanced after 1 trials
   
    12:00:00: Balanced after 1 trials
   
    13:00:00: Balanced after 1 trials
   
    14:00:00: Balanced after 1 trials
   
    15:00:00: Balanced after 1 trials
   
    16:00:00: Balanced after 1 trials
   
    17:00:00: Balanced after 1 trials
   
    18:00:00: Balanced after 1 trials
   
    19:00:00: Balanced after 1 trials
   
    20:00:00: Balanced after 1 trials
   
    21:00:00: Balanced after 1 trials
   
    22:00:00: Balanced after 1 trials
   
    23:00:00: Balanced after 1 trials
   
    24:00:00: Balanced after 1 trials
   
   
  Hydraulic Status:
  -----------------------------------------------------------------------
     0:00:00: Balanced after 1 trials
     0:00:00: Tank 1 is emptying at 1.00 m
   
     1:00:00: Balanced after 1 trials
   
     2:00:00: Balanced after 1 trials
   
     3:00:00: Balanced after 1 trials
   
     4:00:00: Balanced after 1 trials
   
     5:00:00: Balanced after 1 trials
   
     6:00:00: Balanced after 1 trials
   
     7:00:00: Balanced after 1 trials
   
     8:00:00: Balanced after 1 trials
   
     9:00:00: Balanced after 1 trials
   
    10:00:00: Balanced after 1 trials
   
    11:00:00: Balanced after 1 trials
   
    12:00:00: Balanced after 1 trials
   
    13:00:00: Balanced after 1 trials
   
    14:00:00: Balanced after 1 trials
   
    15:00:00: Balanced after 1 trials
   
    16:00:00: Balanced after 1 trials
   
    17:00:00: Balanced after 1 trials
   
    18:00:00: Balanced after 1 trials
   
    19:00:00: Balanced after 1 trials
   
    20:00:00: Balanced after 1 trials
   
    21:00:00: Balanced after 1 trials
   
    22:00:00: Balanced after 1 trials
   
    23:00:00: Balanced after 1 trials
   
    24:00:00: Balanced after 1 trials
   
   
  Hydraulic Status:
  -----------------------------------------------------------------------
     0:00:00: Balanced after 1 trials
     0:00:00: Tank 1 is emptying at 1.00 m
   
     1:00:00: Balanced after 1 trials
   
     2:00:00: Balanced after 1 trials
   
     3:00:00: Balanced after 1 trials
   
     4:00:00: Balanced after 1 trials
   
     5:00:00: Balanced after 1 trials
   
     6:00:00: Balanced after 1 trials
   
     7:00:00: Balanced after 1 trials
   
     8:00:00: Balanced after 1 trials
   
     9:00:00: Balanced after 1 trials
   
    10:00:00: Balanced after 1 trials
   
    11:00:00: Balanced after 1 trials
   
    12:00:00: Balanced after 1 trials
   
    13:00:00: Balanced after 1 trials
   
    14:00:00: Balanced after 1 trials
   
    15:00:00: Balanced after 1 trials
   
    16:00:00: Balanced after 1 trials
   
    17:00:00: Balanced after 1 trials
   
    18:00:00: Balanced after 1 trials
   
    19:00:00: Balanced after 1 trials
   
    20:00:00: Balanced after 1 trials
   
    21:00:00: Balanced after 1 trials
   
    22:00:00: Balanced after 1 trials
   
    23:00:00: Balanced after 1 trials
   
    24:00:00: Balanced after 1 trials
   
   
  Hydraulic Status:
  -----------------------------------------------------------------------
     0:00:00: Balanced after 1 trials
     0:00:00: Tank 1 is emptying at 1.00 m
   
     1:00:00: Balanced after 1 trials
   
     2:00:00: Balanced after 1 trials
   
     3:00:00: Balanced after 1 trials
   
     4:00:00: Balanced after 1 trials
   
     5:00:00: Balanced after 1 trials
   
     6:00:00: Balanced after 1 trials
   
     7:00:00: Balanced after 1 trials
   
     8:00:00: Balanced after 1 trials
   
     9:00:00: Balanced after 1 trials
   
    10:00:00: Balanced after 1 trials
   
    11:00:00: Balanced after 1 trials
   
    12:00:00: Balanced after 1 trials
   
    13:00:00: Balanced after 1 trials
   
    14:00:00: Balanced after 1 trials
   
    15:00:00: Balanced after 1 trials
   
    16:00:00: Balanced after 1 trials
   
    17:00:00: Balanced after 1 trials
   
    18:00:00: Balanced after 1 trials
   
    19:00:00: Balanced after 1 trials
   
    20:00:00: Balanced after 1 trials
   
    21:00:00: Balanced after 1 trials
   
    22:00:00: Balanced after 1 trials
   
    23:00:00: Balanced after 1 trials
   
    24:00:00: Balanced after 1 trials
   
   
  Hydraulic Status:
  -----------------------------------------------------------------------
     0:00:00: Balanced after 1 trials
     0:00:00: Tank 1 is emptying at 1.00 m
   
     1:00:00: Balanced after 1 trials
   
     2:00:00: Balanced after 1 trials
   
     3:00:00: Balanced after 1 trials
   
     4:00:00: Balanced after 1 trials
   
     5:00:00: Balanced after 1 trials
   
     6:00:00: Balanced after 1 trials
   
     7:00:00: Balanced after 1 trials
   
     8:00:00: Balanced after 1 trials
   
     9:00:00: Balanced after 1 trials
   
    10:00:00: Balanced after 1 trials
   
    11:00:00: Balanced after 1 trials
   
    12:00:00: Balanced after 1 trials
   
    13:00:00: Balanced after 1 trials
   
    14:00:00: Balanced after 1 trials
   
    15:00:00: Balanced after 1 trials
   
    16:00:00: Balanced after 1 trials
   
    17:00:00: Balanced after 1 trials
   
    18:00:00: Balanced after 1 trials
   
    19:00:00: Balanced after 1 trials
   
    20:00:00: Balanced after 1 trials
   
    21:00:00: Balanced after 1 trials
   
    22:00:00: Balanced after 1 trials
   
    23:00:00: Balanced after 1 trials
   
    24:00:00: Balanced after 1 trials
   
   
  Hydraulic Status:
  -----------------------------------------------------------------------
     0:00:00: Balanced after 1 trials
     0:00:00: Tank 1 is emptying at 1.00 m
   
     1:00:00: Balanced after 1 trials
   
     2:00:00: Balanced after 1 trials
   
     3:00:00: Balanced after 1 trials
   
     4:00:00: Balanced after 1 trials
   
     5:00:00: Balanced after 1 trials
   
     6:00:00: Balanced after 1 trials
   
     7:00:00: Balanced after 1 trials
   
     8:00:00: Balanced after 1 trials
   
     9:00:00: Balanced after 1 trials
   
    10:00:00: Balanced after 1 trials
   
    11:00:00: Balanced after 1 trials
   
    12:00:00: Balanced after 1 trials
   
    13:00:00: Balanced after 1 trials
   
    14:00:00: Balanced after 1 trials
   
    15:00:00: Balanced after 1 trials
   
    16:00:00: Balanced after 1 trials
   
    17:00:00: Balanced after 1 trials
   
    18:00:00: Balanced after 1 trials
   
    19:00:00: Balanced after 1 trials
   
    20:00:00: Balanced after 1 trials
   
    21:00:00: Balanced after 1 trials
   
    22:00:00: Balanced after 1 trials
   
    23:00:00: Balanced after 1 trials
   
    24:00:00: Balanced after 1 trials
   
   
  Hydraulic Status:
  -----------------------------------------------------------------------
     0:00:00: Balanced after 1 trials
     0:00:00: Tank 1 is emptying at 1.00 m
   
     1:00:00: Balanced after 1 trials
   
     2:00:00: Balanced after 1 trials
   
     3:00:00: Balanced after 1 trials
   
     4:00:00: Balanced after 1 trials
   
     5:00:00: Balanced after 1 trials
   
     6:00:00: Balanced after 1 trials
   
     7:00:00: Balanced after 1 trials
   
     8:00:00: Balanced after 1 trials
   
     9:00:00: Balanced after 1 trials
   
    10:00:00: Balanced after 1 trials
   
    11:00:00: Balanced after 1 trials
   
    12:00:00: Balanced after 1 trials
   
    13:00:00: Balanced after 1 trials
   
    14:00:00: Balanced after 1 trials
   
    15:00:00: Balanced after 1 trials
   
    16:00:00: Balanced after 1 trials
   
    17:00:00: Balanced after 1 trials
   
    18:00:00: Balanced after 1 trials
   
    19:00:00: Balanced after 1 trials
   
    20:00:00: Balanced after 1 trials
   
    21:00:00: Ba